Version 4
SHEET 1 3460 1252
WIRE -416 -1024 -528 -1024
WIRE -336 -1024 -416 -1024
WIRE 0 -1024 -80 -1024
WIRE 160 -1024 0 -1024
WIRE 256 -1024 160 -1024
WIRE 256 -960 256 -1024
WIRE 720 -928 576 -928
WIRE -416 -864 -416 -1024
WIRE 0 -864 0 -1024
WIRE 256 -848 256 -880
WIRE 320 -848 256 -848
WIRE 256 -832 256 -848
WIRE 576 -816 576 -928
WIRE 624 -816 576 -816
WIRE 1088 -816 1088 -896
WIRE 1264 -816 1264 -896
WIRE 1440 -816 1440 -896
WIRE 720 -800 720 -928
WIRE 720 -800 688 -800
WIRE 736 -800 720 -800
WIRE 624 -784 544 -784
WIRE -416 -704 -416 -800
WIRE -208 -704 -208 -928
WIRE -208 -704 -416 -704
WIRE 0 -704 0 -800
WIRE 0 -704 -208 -704
WIRE 256 -704 256 -752
WIRE 256 -704 0 -704
WIRE -208 -672 -208 -704
WIRE 496 -288 448 -288
WIRE 320 -208 224 -208
WIRE 448 -208 448 -288
WIRE 448 -208 400 -208
WIRE 1120 -192 1120 -288
WIRE 1152 -192 1120 -192
WIRE -432 -176 -656 -176
WIRE 448 -176 448 -208
WIRE 496 -176 448 -176
WIRE 1280 -176 1216 -176
WIRE 576 -160 576 -288
WIRE 576 -160 560 -160
WIRE 608 -160 576 -160
WIRE 1120 -160 1088 -160
WIRE 1152 -160 1120 -160
WIRE 496 -144 416 -144
WIRE -656 -128 -656 -176
WIRE -432 -128 -432 -176
WIRE 416 -128 416 -144
WIRE 416 -128 336 -128
WIRE 416 -80 416 -128
WIRE 1120 -48 1120 -160
WIRE 1152 -48 1120 -48
WIRE 1280 -48 1280 -176
WIRE 1280 -48 1232 -48
WIRE -432 0 -432 -48
WIRE -432 0 -512 0
WIRE -352 0 -432 0
WIRE -336 0 -352 0
WIRE -512 32 -512 0
WIRE -352 32 -352 0
WIRE -512 160 -512 112
WIRE -432 160 -512 160
WIRE -352 160 -352 112
WIRE -352 160 -432 160
WIRE -432 192 -432 160
WIRE -432 192 -512 192
WIRE -352 192 -432 192
WIRE -512 208 -512 192
WIRE -352 208 -352 192
WIRE 496 272 448 272
WIRE -512 336 -512 288
WIRE -432 336 -512 336
WIRE -352 336 -352 288
WIRE -352 336 -432 336
WIRE 320 352 224 352
WIRE 448 352 448 272
WIRE 448 352 400 352
WIRE -656 368 -656 -48
WIRE -544 368 -656 368
WIRE -432 368 -432 336
WIRE -432 368 -544 368
WIRE 448 384 448 352
WIRE 496 384 448 384
WIRE -544 400 -544 368
WIRE 576 400 576 272
WIRE 576 400 560 400
WIRE 608 400 576 400
WIRE 496 416 416 416
WIRE 416 432 416 416
WIRE 416 432 336 432
WIRE 416 480 416 432
WIRE -432 896 -656 896
WIRE 208 896 64 896
WIRE -656 976 -656 896
WIRE -432 1008 -432 976
WIRE -304 1008 -432 1008
WIRE 64 1008 64 896
WIRE 112 1008 64 1008
WIRE 208 1024 208 896
WIRE 208 1024 176 1024
WIRE 224 1024 208 1024
WIRE 368 1024 368 992
WIRE 368 1024 304 1024
WIRE -432 1040 -432 1008
WIRE 112 1040 32 1040
WIRE -304 1056 -304 1008
WIRE -656 1184 -656 1056
WIRE -432 1184 -432 1120
WIRE -432 1184 -656 1184
WIRE -304 1184 -304 1120
WIRE -304 1184 -432 1184
WIRE -432 1232 -432 1184
FLAG 224 352 0
FLAG 528 432 0
FLAG 528 368 5V
FLAG 608 400 vo_high
FLAG 416 640 0
FLAG 224 -208 0
FLAG 528 -128 0
FLAG 528 -192 5V
FLAG 608 -160 vo_low
FLAG 416 80 0
FLAG 160 -1024 5V
FLAG -528 -1024 Vdc
FLAG -208 -672 0
FLAG -336 0 Vi
FLAG 256 -128 Vi
FLAG 256 432 Vi
FLAG -304 1008 Vv
FLAG 32 1040 Vv
FLAG 144 1056 0
FLAG 144 992 5V
FLAG 368 1088 0
FLAG 368 992 Vvo
FLAG -432 1232 0
FLAG -672 -880 0
FLAG -672 -960 Vdc
FLAG 1184 -144 0
FLAG 1184 -208 5V
FLAG 1088 -736 0
FLAG 1088 -960 Vdc
FLAG 1264 -736 0
FLAG 1264 -960 V1
FLAG 1440 -736 0
FLAG 1440 -960 Debug
FLAG 1008 -160 vo_low
FLAG 1120 -288 3.3V
FLAG 1456 -80 0
FLAG 1456 -160 3.3v
FLAG 544 -784 Vref
FLAG 656 -768 0
FLAG 656 -832 5V
FLAG 320 -848 Vref
FLAG -544 400 0
SYMBOL res -448 -144 R0
SYMATTR InstName R1
SYMATTR Value 0.6
SYMBOL res -368 16 R0
SYMATTR InstName R2
SYMATTR Value 2m
SYMBOL res 592 256 R90
WINDOW 0 0 56 VBottom 2
WINDOW 3 32 56 VTop 2
SYMATTR InstName R4
SYMATTR Value 100k
SYMBOL res 416 336 R90
WINDOW 0 0 56 VBottom 2
WINDOW 3 32 56 VTop 2
SYMATTR InstName R5
SYMATTR Value 10k
SYMBOL res 400 464 R0
SYMATTR InstName R6
SYMATTR Value 100k
SYMBOL res 352 416 R90
WINDOW 0 0 56 VBottom 2
WINDOW 3 32 56 VTop 2
SYMATTR InstName R7
SYMATTR Value 10k
SYMBOL OpAmps\\UniversalOpAmp5 528 400 R0
SYMATTR InstName U1
SYMBOL voltage 416 544 R0
WINDOW 123 0 0 Left 0
WINDOW 39 0 0 Left 0
SYMATTR InstName V3
SYMATTR Value 1.65
SYMBOL res 592 -304 R90
WINDOW 0 0 56 VBottom 2
WINDOW 3 32 56 VTop 2
SYMATTR InstName R8
SYMATTR Value 330k
SYMBOL res 416 -224 R90
WINDOW 0 0 56 VBottom 2
WINDOW 3 32 56 VTop 2
SYMATTR InstName R9
SYMATTR Value 10k
SYMBOL res 400 -96 R0
SYMATTR InstName R10
SYMATTR Value 330k
SYMBOL res 352 -144 R90
WINDOW 0 0 56 VBottom 2
WINDOW 3 32 56 VTop 2
SYMATTR InstName R11
SYMATTR Value 10k
SYMBOL OpAmps\\UniversalOpAmp5 528 -160 R0
SYMATTR InstName U2
SYMBOL voltage 416 -16 R0
WINDOW 123 0 0 Left 0
WINDOW 39 0 0 Left 0
SYMATTR InstName V5
SYMATTR Value 1.65
SYMBOL res -528 16 R0
SYMATTR InstName R22
SYMATTR Value 2m
SYMBOL current -656 -48 R180
WINDOW 0 24 80 Left 2
WINDOW 3 24 0 Left 2
WINDOW 123 0 0 Left 0
WINDOW 39 0 0 Left 0
SYMATTR InstName I1
SYMATTR Value 30
SYMBOL res -368 192 R0
SYMATTR InstName R3
SYMATTR Value 2m
SYMBOL res -528 192 R0
SYMATTR InstName R16
SYMATTR Value 2m
SYMBOL PowerProducts/LT1085-5 -208 -1024 R0
SYMATTR InstName Reg1
SYMBOL cap -432 -864 R0
SYMATTR InstName Cin1
SYMATTR Value 47µ
SYMATTR SpiceLine Rser=0.001
SYMBOL cap -16 -864 R0
SYMATTR InstName Cout1
SYMATTR Value 10µ
SYMATTR SpiceLine Rser=0.001
SYMBOL voltage -656 960 R0
WINDOW 123 0 0 Left 0
WINDOW 39 0 0 Left 0
SYMATTR InstName V2
SYMATTR Value 15
SYMBOL res -448 880 R0
SYMATTR InstName R18
SYMATTR Value 22k
SYMBOL res -448 1024 R0
SYMATTR InstName R19
SYMATTR Value 1k
SYMBOL OpAmps\\UniversalOpAmp5 144 1024 R0
SYMATTR InstName U4
SYMBOL res 320 1008 R90
WINDOW 0 0 56 VBottom 2
WINDOW 3 32 56 VTop 2
SYMATTR InstName R20
SYMATTR Value 1k
SYMBOL cap 352 1024 R0
SYMATTR InstName C2
SYMATTR Value 100n
SYMBOL zener -288 1120 R180
WINDOW 0 24 64 Left 2
WINDOW 3 24 0 Left 2
SYMATTR InstName Z1
SYMBOL voltage -672 -976 R0
WINDOW 123 0 0 Left 0
WINDOW 39 0 0 Left 0
SYMATTR InstName V1
SYMATTR Value 12
SYMBOL OpAmps\\UniversalOpAmp5 1184 -176 R0
SYMATTR InstName U3
SYMBOL res 1104 -176 R90
WINDOW 0 0 56 VBottom 2
WINDOW 3 32 56 VTop 2
SYMATTR InstName R12
SYMATTR Value 10k
SYMBOL res 1248 -64 R90
WINDOW 0 0 56 VBottom 2
WINDOW 3 32 56 VTop 2
SYMATTR InstName R13
SYMATTR Value 100k
SYMBOL LED 1072 -960 R0
SYMATTR InstName D1
SYMBOL res 1072 -832 R0
SYMATTR InstName R14
SYMATTR Value 100
SYMBOL LED 1248 -960 R0
SYMATTR InstName D2
SYMBOL res 1248 -832 R0
SYMATTR InstName R15
SYMATTR Value 100
SYMBOL LED 1424 -960 R0
SYMATTR InstName D3
SYMBOL res 1424 -832 R0
SYMATTR InstName R17
SYMATTR Value 100
SYMBOL res 240 -976 R0
SYMATTR InstName R21
SYMBOL res 240 -848 R0
SYMATTR InstName R23
SYMBOL voltage 1456 -176 R0
WINDOW 123 0 0 Left 0
WINDOW 39 0 0 Left 0
SYMATTR InstName V6
SYMATTR Value 3.3
SYMBOL OpAmps\\UniversalOpAmp5 656 -800 R0
SYMATTR InstName U5
TEXT -600 -1512 Left 2 !.tran 10ms
TEXT -744 -1688 Left 2 ;different gains for whether high current or low current. low current will have better accuracy.
TEXT -744 -1624 Left 2 ;Low current will saturate if high current so code can read the high current opamp value
TEXT -656 816 Left 2 ;Voltage sensing
TEXT -600 -1448 Left 2 !.model Z D(BV=3.3 IBV=1m)
TEXT -592 -1344 Left 2 ;zener diodes?
TEXT -648 -272 Left 2 ;Current Sensing
TEXT 200 -368 Left 2 ;+-20A Range
TEXT 184 240 Left 2 ;+-100A Range
TEXT 824 352 Left 2 ;no schmitt, change range to be 100 to -40
TEXT 848 480 Left 2 ;zener diodes but not in ltspice
TEXT 792 160 Left 2 ;800Hz corner f for filtering caps
