Version 4
SHEET 1 1312 1028
WIRE 672 -448 624 -448
WIRE 496 -368 400 -368
WIRE 624 -368 624 -448
WIRE 624 -368 576 -368
WIRE 624 -336 624 -368
WIRE 672 -336 624 -336
WIRE 752 -320 752 -448
WIRE 752 -320 736 -320
WIRE 784 -320 752 -320
WIRE 672 -304 592 -304
WIRE 592 -288 592 -304
WIRE 592 -288 512 -288
WIRE 592 -240 592 -288
WIRE -432 -176 -656 -176
WIRE -656 -128 -656 -176
WIRE -432 -128 -432 -176
WIRE -496 0 -576 0
WIRE -432 0 -432 -48
WIRE -432 0 -496 0
WIRE -384 0 -432 0
WIRE -288 0 -384 0
WIRE -192 0 -288 0
WIRE -96 0 -192 0
WIRE 32 0 -96 0
WIRE 32 16 32 0
WIRE 176 16 32 16
WIRE 288 16 176 16
WIRE 416 16 288 16
WIRE -576 32 -576 0
WIRE -496 32 -496 0
WIRE -384 32 -384 0
WIRE 1088 32 1040 32
WIRE -288 48 -288 0
WIRE -192 48 -192 0
WIRE -96 48 -96 0
WIRE 32 48 32 16
WIRE 176 48 176 16
WIRE 416 48 416 16
WIRE 288 64 288 16
WIRE 912 112 816 112
WIRE 1040 112 1040 32
WIRE 1040 112 992 112
WIRE 1040 144 1040 112
WIRE 1088 144 1040 144
WIRE -576 160 -576 112
WIRE -496 160 -496 112
WIRE -496 160 -576 160
WIRE -432 160 -496 160
WIRE -384 160 -384 112
WIRE -384 160 -432 160
WIRE -288 160 -288 128
WIRE -288 160 -384 160
WIRE -192 160 -192 128
WIRE -192 160 -288 160
WIRE -96 160 -96 128
WIRE -96 160 -192 160
WIRE 32 160 32 128
WIRE 32 160 -96 160
WIRE 176 160 176 128
WIRE 176 160 32 160
WIRE 1168 160 1168 32
WIRE 1168 160 1152 160
WIRE 1200 160 1168 160
WIRE 176 176 176 160
WIRE 288 176 288 144
WIRE 288 176 176 176
WIRE 416 176 416 128
WIRE 416 176 288 176
WIRE 1088 176 1008 176
WIRE 1008 192 1008 176
WIRE 1008 192 928 192
WIRE -656 208 -656 -48
WIRE -528 208 -656 208
WIRE -432 208 -432 160
WIRE -432 208 -528 208
WIRE 1008 240 1008 192
WIRE -528 256 -528 208
WIRE 608 640 560 640
WIRE -96 656 -96 624
WIRE 32 656 -96 656
WIRE -96 688 -96 656
WIRE 32 704 32 656
WIRE 560 752 560 640
WIRE 608 752 560 752
WIRE 688 768 688 640
WIRE 688 768 672 768
WIRE 720 768 688 768
WIRE 608 784 528 784
WIRE 368 800 240 800
WIRE 528 800 528 784
WIRE 528 800 448 800
WIRE -96 832 -96 768
WIRE -64 832 -96 832
WIRE 32 832 32 768
WIRE 32 832 -64 832
FLAG -528 256 0
FLAG -432 0 V
FLAG 816 112 0
FLAG 848 192 V
FLAG 1120 192 0
FLAG 1120 128 3.3v
FLAG 1200 160 vo_high
FLAG 1008 400 0
FLAG 400 -368 0
FLAG 432 -288 V
FLAG 704 -288 0
FLAG 1056 -208 0
FLAG 1056 -288 3.3v
FLAG 704 -352 3.3v
FLAG 784 -320 vo_low
FLAG 592 -80 0
FLAG -96 544 V1
FLAG -64 832 0
FLAG 32 656 Vv
FLAG 240 800 Vv
FLAG 640 800 0
FLAG 640 736 3.3v
FLAG 800 832 0
FLAG 800 768 Vvo
FLAG -432 -176 V1
SYMBOL voltage -656 -144 R0
WINDOW 123 0 0 Left 0
WINDOW 39 0 0 Left 0
SYMATTR InstName V1
SYMATTR Value 18
SYMBOL res -448 -144 R0
SYMATTR InstName R1
SYMATTR Value 0.6
SYMBOL res -512 16 R0
SYMATTR InstName R2
SYMATTR Value 0.01
SYMBOL res -400 16 R0
SYMATTR InstName R3
SYMATTR Value 0.01
SYMBOL res 1184 16 R90
WINDOW 0 0 56 VBottom 2
WINDOW 3 32 56 VTop 2
SYMATTR InstName R4
SYMATTR Value 150k
SYMBOL res 1008 96 R90
WINDOW 0 0 56 VBottom 2
WINDOW 3 32 56 VTop 2
SYMATTR InstName R5
SYMATTR Value 10k
SYMBOL res 992 224 R0
SYMATTR InstName R6
SYMATTR Value 150k
SYMBOL res 944 176 R90
WINDOW 0 0 56 VBottom 2
WINDOW 3 32 56 VTop 2
SYMATTR InstName R7
SYMATTR Value 10k
SYMBOL OpAmps\\UniversalOpAmp5 1120 160 R0
SYMATTR InstName U1
SYMBOL voltage 1008 304 R0
WINDOW 123 0 0 Left 0
WINDOW 39 0 0 Left 0
SYMATTR InstName V3
SYMATTR Value 1.6
SYMBOL res 768 -464 R90
WINDOW 0 0 56 VBottom 2
WINDOW 3 32 56 VTop 2
SYMATTR InstName R8
SYMATTR Value 300k
SYMBOL res 592 -384 R90
WINDOW 0 0 56 VBottom 2
WINDOW 3 32 56 VTop 2
SYMATTR InstName R9
SYMATTR Value 4k
SYMBOL res 576 -256 R0
SYMATTR InstName R10
SYMATTR Value 300k
SYMBOL res 528 -304 R90
WINDOW 0 0 56 VBottom 2
WINDOW 3 32 56 VTop 2
SYMATTR InstName R11
SYMATTR Value 4k
SYMBOL OpAmps\\UniversalOpAmp5 704 -320 R0
SYMATTR InstName U2
SYMBOL voltage 1056 -304 R0
WINDOW 123 0 0 Left 0
WINDOW 39 0 0 Left 0
SYMATTR InstName V4
SYMATTR Value 3.3
SYMBOL voltage 592 -176 R0
WINDOW 123 0 0 Left 0
WINDOW 39 0 0 Left 0
SYMATTR InstName V5
SYMATTR Value 1.6
SYMBOL res -112 528 R0
SYMATTR InstName R12
SYMATTR Value 19k
SYMBOL res -112 672 R0
SYMATTR InstName R13
SYMATTR Value 1k
SYMBOL res 704 624 R90
WINDOW 0 0 56 VBottom 2
WINDOW 3 32 56 VTop 2
SYMATTR InstName R14
SYMATTR Value 10k
SYMBOL res 464 784 R90
WINDOW 0 0 56 VBottom 2
WINDOW 3 32 56 VTop 2
SYMATTR InstName R17
SYMATTR Value 9050
SYMBOL OpAmps\\UniversalOpAmp5 640 768 R0
SYMATTR InstName U3
SYMBOL res 816 752 R90
WINDOW 0 0 56 VBottom 2
WINDOW 3 32 56 VTop 2
SYMATTR InstName R15
SYMATTR Value 1l
SYMBOL cap 784 768 R0
SYMATTR InstName C1
SYMATTR Value 100n
SYMBOL res -304 32 R0
SYMATTR InstName R16
SYMATTR Value 0.01
SYMBOL res -208 32 R0
SYMATTR InstName R18
SYMATTR Value 0.01
SYMBOL res -112 32 R0
SYMATTR InstName R19
SYMATTR Value 0.01
SYMBOL res 16 32 R0
SYMATTR InstName R20
SYMATTR Value 0.01
SYMBOL res 160 32 R0
SYMATTR InstName R21
SYMATTR Value 0.01
SYMBOL res -592 16 R0
SYMATTR InstName R22
SYMATTR Value 0.01
SYMBOL res 272 48 R0
SYMATTR InstName R23
SYMATTR Value 0.01
SYMBOL res 400 32 R0
SYMATTR InstName R24
SYMATTR Value 0.01
TEXT 16 168 Left 2 !.tran 10ms
TEXT -640 -528 Left 2 ;different gains for whether high current or low current. low current will have better accuracy.
TEXT -656 -408 Left 2 ;Low current will saturate if high current so code can read the high current opamp value
