Version 4
SHEET 1 2080 1028
WIRE 1456 -528 1344 -528
WIRE 1536 -528 1456 -528
WIRE 1872 -528 1792 -528
WIRE 2032 -528 1872 -528
WIRE 672 -448 624 -448
WIRE 496 -368 400 -368
WIRE 624 -368 624 -448
WIRE 624 -368 576 -368
WIRE 1456 -368 1456 -528
WIRE 1872 -368 1872 -528
WIRE 624 -336 624 -368
WIRE 672 -336 624 -336
WIRE 752 -320 752 -448
WIRE 752 -320 736 -320
WIRE 784 -320 752 -320
WIRE 672 -304 592 -304
WIRE 592 -288 592 -304
WIRE 592 -288 512 -288
WIRE 592 -240 592 -288
WIRE 1456 -208 1456 -304
WIRE 1664 -208 1664 -432
WIRE 1664 -208 1456 -208
WIRE 1872 -208 1872 -304
WIRE 1872 -208 1664 -208
WIRE -432 -176 -656 -176
WIRE 1664 -176 1664 -208
WIRE -656 -128 -656 -176
WIRE -432 -128 -432 -176
WIRE -496 0 -576 0
WIRE -432 0 -432 -48
WIRE -432 0 -496 0
WIRE -384 0 -432 0
WIRE -288 0 -384 0
WIRE -576 32 -576 0
WIRE -496 32 -496 0
WIRE -384 32 -384 0
WIRE 1088 32 1040 32
WIRE 912 112 816 112
WIRE 1040 112 1040 32
WIRE 1040 112 992 112
WIRE 1040 144 1040 112
WIRE 1088 144 1040 144
WIRE -576 160 -576 112
WIRE -496 160 -496 112
WIRE -496 160 -576 160
WIRE -432 160 -496 160
WIRE -384 160 -384 112
WIRE -384 160 -432 160
WIRE -288 160 -288 128
WIRE -288 160 -384 160
WIRE -192 160 -192 128
WIRE -192 160 -288 160
WIRE -96 160 -96 128
WIRE -96 160 -192 160
WIRE 32 160 32 128
WIRE 32 160 -96 160
WIRE 176 160 176 128
WIRE 176 160 32 160
WIRE 1168 160 1168 32
WIRE 1168 160 1152 160
WIRE 1200 160 1168 160
WIRE 176 176 176 160
WIRE 288 176 176 176
WIRE 1088 176 1008 176
WIRE 1008 192 1008 176
WIRE 1008 192 928 192
WIRE -432 208 -432 160
WIRE -272 208 -432 208
WIRE -432 240 -432 208
WIRE -432 240 -480 240
WIRE -400 240 -432 240
WIRE 1008 240 1008 192
WIRE -432 320 -480 320
WIRE -400 320 -432 320
WIRE -656 368 -656 -48
WIRE -544 368 -656 368
WIRE -432 368 -432 320
WIRE -432 368 -544 368
WIRE -272 368 -432 368
WIRE 608 640 560 640
WIRE -96 656 -96 624
WIRE 32 656 -96 656
WIRE -96 688 -96 656
WIRE 32 704 32 656
WIRE 560 752 560 640
WIRE 608 752 560 752
WIRE 688 768 688 640
WIRE 688 768 672 768
WIRE 720 768 688 768
WIRE 608 784 528 784
WIRE 368 800 240 800
WIRE 528 800 528 784
WIRE 528 800 448 800
WIRE -96 832 -96 768
WIRE -64 832 -96 832
WIRE 32 832 32 768
WIRE 32 832 -64 832
FLAG 816 112 0
FLAG 1120 192 0
FLAG 1120 128 3.3v
FLAG 1200 160 vo_high
FLAG 1008 400 0
FLAG 400 -368 0
FLAG 704 -288 0
FLAG 1056 -208 0
FLAG 1056 -288 3.3v
FLAG 704 -352 3.3v
FLAG 784 -320 vo_low
FLAG 592 -80 0
FLAG -96 544 V1
FLAG -64 832 0
FLAG 32 656 Vv
FLAG 240 800 Vv
FLAG 640 800 0
FLAG 640 736 3.3v
FLAG 800 832 0
FLAG 800 768 Vvo
FLAG -544 368 0
FLAG 2032 -528 5V
FLAG 1344 -528 Vdc
FLAG 1664 -176 0
FLAG -432 0 Vvvv
FLAG 432 -288 Vvvv
FLAG 848 192 Vvvv
SYMBOL voltage -880 -144 R0
WINDOW 123 0 0 Left 0
WINDOW 39 0 0 Left 0
SYMATTR InstName V1
SYMATTR Value 18
SYMBOL res -448 -144 R0
SYMATTR InstName R1
SYMATTR Value 0.6
SYMBOL res -512 16 R0
SYMATTR InstName R2
SYMATTR Value 2m
SYMBOL res 1184 16 R90
WINDOW 0 0 56 VBottom 2
WINDOW 3 32 56 VTop 2
SYMATTR InstName R4
SYMATTR Value 200k
SYMBOL res 1008 96 R90
WINDOW 0 0 56 VBottom 2
WINDOW 3 32 56 VTop 2
SYMATTR InstName R5
SYMATTR Value 10k
SYMBOL res 992 224 R0
SYMATTR InstName R6
SYMATTR Value 200k
SYMBOL res 944 176 R90
WINDOW 0 0 56 VBottom 2
WINDOW 3 32 56 VTop 2
SYMATTR InstName R7
SYMATTR Value 10k
SYMBOL OpAmps\\UniversalOpAmp5 1120 160 R0
SYMATTR InstName U1
SYMBOL voltage 1008 304 R0
WINDOW 123 0 0 Left 0
WINDOW 39 0 0 Left 0
SYMATTR InstName V3
SYMATTR Value 1.65
SYMBOL res 768 -464 R90
WINDOW 0 0 56 VBottom 2
WINDOW 3 32 56 VTop 2
SYMATTR InstName R8
SYMATTR Value 330k
SYMBOL res 592 -384 R90
WINDOW 0 0 56 VBottom 2
WINDOW 3 32 56 VTop 2
SYMATTR InstName R9
SYMATTR Value 10k
SYMBOL res 576 -256 R0
SYMATTR InstName R10
SYMATTR Value 330k
SYMBOL res 528 -304 R90
WINDOW 0 0 56 VBottom 2
WINDOW 3 32 56 VTop 2
SYMATTR InstName R11
SYMATTR Value 10k
SYMBOL OpAmps\\UniversalOpAmp5 704 -320 R0
SYMATTR InstName U2
SYMBOL voltage 1056 -304 R0
WINDOW 123 0 0 Left 0
WINDOW 39 0 0 Left 0
SYMATTR InstName V4
SYMATTR Value 3.3
SYMBOL voltage 592 -176 R0
WINDOW 123 0 0 Left 0
WINDOW 39 0 0 Left 0
SYMATTR InstName V5
SYMATTR Value 1.65
SYMBOL res -112 528 R0
SYMATTR InstName R12
SYMATTR Value 19k
SYMBOL res -112 672 R0
SYMATTR InstName R13
SYMATTR Value 1k
SYMBOL res 704 624 R90
WINDOW 0 0 56 VBottom 2
WINDOW 3 32 56 VTop 2
SYMATTR InstName R14
SYMATTR Value 10k
SYMBOL res 464 784 R90
WINDOW 0 0 56 VBottom 2
WINDOW 3 32 56 VTop 2
SYMATTR InstName R17
SYMATTR Value 9050
SYMBOL OpAmps\\UniversalOpAmp5 640 768 R0
SYMATTR InstName U3
SYMBOL res 816 752 R90
WINDOW 0 0 56 VBottom 2
WINDOW 3 32 56 VTop 2
SYMATTR InstName R15
SYMATTR Value 1l
SYMBOL cap 784 768 R0
SYMATTR InstName C1
SYMATTR Value 100n
SYMBOL res -592 16 R0
SYMATTR InstName R22
SYMATTR Value 2m
SYMBOL current -656 -48 R180
WINDOW 0 24 80 Left 2
WINDOW 3 24 0 Left 2
WINDOW 123 0 0 Left 0
WINDOW 39 0 0 Left 0
SYMATTR InstName I1
SYMATTR Value 30
SYMBOL res -416 224 R0
SYMATTR InstName R3
SYMATTR Value 2m
SYMBOL res -496 224 R0
SYMATTR InstName R16
SYMATTR Value 2m
SYMBOL PowerProducts/LT1085-5 1664 -528 R0
SYMATTR InstName Reg1
SYMBOL cap 1440 -368 R0
SYMATTR InstName Cin1
SYMATTR Value 47µ
SYMATTR SpiceLine Rser=0.001
SYMBOL cap 1856 -368 R0
SYMATTR InstName Cout1
SYMATTR Value 10µ
SYMATTR SpiceLine Rser=0.001
TEXT 128 280 Left 2 !.tran 10ms
TEXT -640 -528 Left 2 ;different gains for whether high current or low current. low current will have better accuracy.
TEXT -656 -408 Left 2 ;Low current will saturate if high current so code can read the high current opamp value
