Version 4
SHEET 1 3460 1252
WIRE -416 -1024 -672 -1024
WIRE -336 -1024 -416 -1024
WIRE 0 -1024 -80 -1024
WIRE 160 -1024 0 -1024
WIRE 256 -1024 160 -1024
WIRE 256 -960 256 -1024
WIRE 720 -928 576 -928
WIRE -672 -896 -672 -1024
WIRE -416 -864 -416 -1024
WIRE 0 -864 0 -1024
WIRE 256 -848 256 -880
WIRE 320 -848 256 -848
WIRE 256 -832 256 -848
WIRE 576 -816 576 -928
WIRE 624 -816 576 -816
WIRE 1088 -816 1088 -896
WIRE 1232 -816 1232 -896
WIRE 720 -800 720 -928
WIRE 720 -800 688 -800
WIRE 736 -800 720 -800
WIRE 624 -784 544 -784
WIRE -672 -704 -672 -816
WIRE -416 -704 -416 -800
WIRE -416 -704 -672 -704
WIRE -208 -704 -208 -928
WIRE -208 -704 -416 -704
WIRE 0 -704 0 -800
WIRE 0 -704 -208 -704
WIRE 256 -704 256 -752
WIRE 256 -704 0 -704
WIRE -208 -672 -208 -704
WIRE 624 -384 560 -384
WIRE 768 -384 688 -384
WIRE 560 -272 560 -384
WIRE 608 -272 560 -272
WIRE 768 -272 768 -384
WIRE 768 -272 688 -272
WIRE -272 -224 -576 -224
WIRE 432 -192 304 -192
WIRE 560 -192 560 -272
WIRE 560 -192 512 -192
WIRE -272 -176 -272 -224
WIRE 560 -160 560 -192
WIRE 608 -160 560 -160
WIRE 768 -144 768 -272
WIRE 768 -144 672 -144
WIRE 816 -144 768 -144
WIRE 960 -144 960 -176
WIRE 960 -144 896 -144
WIRE 608 -128 528 -128
WIRE 448 -112 400 -112
WIRE 528 -112 528 -128
WIRE 528 -112 448 -112
WIRE 448 -64 448 -112
WIRE 528 -64 528 -112
WIRE -272 -48 -272 -96
WIRE -272 -48 -352 -48
WIRE -192 -48 -272 -48
WIRE -176 -48 -192 -48
WIRE 960 -48 960 -80
WIRE -576 -16 -576 -224
WIRE -352 -16 -352 -48
WIRE -192 -16 -192 -48
WIRE 448 32 448 0
WIRE 528 32 528 16
WIRE -352 112 -352 64
WIRE -272 112 -352 112
WIRE -192 112 -192 64
WIRE -192 112 -272 112
WIRE -272 144 -272 112
WIRE -272 144 -352 144
WIRE -192 144 -272 144
WIRE -352 160 -352 144
WIRE -192 160 -192 144
WIRE 640 192 576 192
WIRE 784 192 704 192
WIRE -352 288 -352 240
WIRE -272 288 -352 288
WIRE -192 288 -192 240
WIRE -192 288 -272 288
WIRE 576 304 576 192
WIRE 624 304 576 304
WIRE 784 304 784 192
WIRE 784 304 704 304
WIRE -576 320 -576 64
WIRE -416 320 -576 320
WIRE -272 320 -272 288
WIRE -272 320 -416 320
WIRE -416 352 -416 320
WIRE 448 384 304 384
WIRE 576 384 576 304
WIRE 576 384 528 384
WIRE 576 416 576 384
WIRE 624 416 576 416
WIRE 784 432 784 304
WIRE 784 432 688 432
WIRE 832 432 784 432
WIRE 976 432 976 400
WIRE 976 432 912 432
WIRE 624 448 544 448
WIRE 464 464 416 464
WIRE 544 464 544 448
WIRE 544 464 464 464
WIRE 464 512 464 464
WIRE 544 512 544 464
WIRE 976 544 976 496
WIRE 464 608 464 576
WIRE 544 608 544 592
WIRE -272 848 -496 848
WIRE -496 928 -496 848
WIRE -272 960 -272 928
WIRE -144 960 -272 960
WIRE -272 992 -272 960
WIRE 656 992 512 992
WIRE -144 1008 -144 960
WIRE 512 1104 512 992
WIRE 560 1104 512 1104
WIRE 656 1120 656 992
WIRE 656 1120 624 1120
WIRE 672 1120 656 1120
WIRE 816 1120 816 1088
WIRE 816 1120 752 1120
WIRE -496 1136 -496 1008
WIRE -272 1136 -272 1072
WIRE -272 1136 -496 1136
WIRE -144 1136 -144 1072
WIRE -144 1136 -272 1136
WIRE 560 1136 480 1136
WIRE -272 1184 -272 1136
FLAG 304 384 0
FLAG 656 464 0
FLAG 656 400 5V
FLAG 976 400 vo_high
FLAG 304 -192 0
FLAG 640 -112 0
FLAG 640 -176 5V
FLAG 960 -176 vo_low
FLAG 160 -1024 5V
FLAG -208 -672 0
FLAG -176 -48 Vi
FLAG 320 -112 Vi
FLAG 336 464 Vi
FLAG -144 960 Vv
FLAG 480 1136 Vv
FLAG 592 1152 0
FLAG 592 1088 5V
FLAG 816 1184 0
FLAG 816 1088 Vvo
FLAG -272 1184 0
FLAG 1088 -736 0
FLAG 1088 -960 Vdc
FLAG 1232 -736 0
FLAG 1232 -960 Debug
FLAG 544 -784 Vref
FLAG 656 -768 0
FLAG 656 -832 5V
FLAG 320 -848 Vref
FLAG -416 352 0
FLAG 976 544 0
FLAG 960 -48 0
FLAG 448 32 0
FLAG 464 608 0
FLAG 736 -800 1.63V
FLAG 528 32 1.63V
FLAG 544 608 1.63V
FLAG -672 -1024 Vdc
SYMBOL res -288 -192 R0
SYMATTR InstName R1
SYMATTR Value 0.6
SYMBOL res -208 -32 R0
SYMATTR InstName R2
SYMATTR Value 2m
SYMBOL res 720 288 R90
WINDOW 0 0 56 VBottom 2
WINDOW 3 32 56 VTop 2
SYMATTR InstName R4
SYMATTR Value 68k
SYMBOL res 544 368 R90
WINDOW 0 0 56 VBottom 2
WINDOW 3 32 56 VTop 2
SYMATTR InstName R5
SYMATTR Value 10k
SYMBOL res 528 496 R0
SYMATTR InstName R6
SYMATTR Value 68k
SYMBOL res 432 448 R90
WINDOW 0 0 56 VBottom 2
WINDOW 3 32 56 VTop 2
SYMATTR InstName R7
SYMATTR Value 10k
SYMBOL OpAmps\\UniversalOpAmp5 656 432 R0
SYMATTR InstName U1
SYMBOL res 704 -288 R90
WINDOW 0 0 56 VBottom 2
WINDOW 3 32 56 VTop 2
SYMATTR InstName R8
SYMATTR Value 330k
SYMBOL res 528 -208 R90
WINDOW 0 0 56 VBottom 2
WINDOW 3 32 56 VTop 2
SYMATTR InstName R9
SYMATTR Value 10k
SYMBOL res 512 -80 R0
SYMATTR InstName R10
SYMATTR Value 330k
SYMBOL res 416 -128 R90
WINDOW 0 0 56 VBottom 2
WINDOW 3 32 56 VTop 2
SYMATTR InstName R11
SYMATTR Value 10k
SYMBOL OpAmps\\UniversalOpAmp5 640 -144 R0
SYMATTR InstName U2
SYMBOL res -368 -32 R0
SYMATTR InstName R22
SYMATTR Value 2m
SYMBOL current -576 64 R180
WINDOW 0 24 80 Left 2
WINDOW 3 24 0 Left 2
WINDOW 123 0 0 Left 0
WINDOW 39 0 0 Left 0
SYMATTR InstName I1
SYMATTR Value -100
SYMBOL res -208 144 R0
SYMATTR InstName R3
SYMATTR Value 2m
SYMBOL res -368 144 R0
SYMATTR InstName R16
SYMATTR Value 2m
SYMBOL PowerProducts/LT1085-5 -208 -1024 R0
SYMATTR InstName Reg1
SYMBOL cap -432 -864 R0
SYMATTR InstName Cin1
SYMATTR Value 47µ
SYMATTR SpiceLine Rser=0.001
SYMBOL cap -16 -864 R0
SYMATTR InstName Cout1
SYMATTR Value 10µ
SYMATTR SpiceLine Rser=0.001
SYMBOL voltage -496 912 R0
WINDOW 123 0 0 Left 0
WINDOW 39 0 0 Left 0
SYMATTR InstName V2
SYMATTR Value 60
SYMBOL res -288 832 R0
SYMATTR InstName R18
SYMATTR Value 22k
SYMBOL res -288 976 R0
SYMATTR InstName R19
SYMATTR Value 1k
SYMBOL OpAmps\\UniversalOpAmp5 592 1120 R0
SYMATTR InstName U4
SYMBOL res 768 1104 R90
WINDOW 0 0 56 VBottom 2
WINDOW 3 32 56 VTop 2
SYMATTR InstName R20
SYMATTR Value 1k
SYMBOL cap 800 1120 R0
SYMATTR InstName C2
SYMATTR Value 100n
SYMBOL zener -128 1072 R180
WINDOW 0 24 64 Left 2
WINDOW 3 24 0 Left 2
SYMATTR InstName Z1
SYMBOL voltage -672 -912 R0
WINDOW 123 0 0 Left 0
WINDOW 39 0 0 Left 0
SYMATTR InstName V1
SYMATTR Value 12
SYMBOL LED 1072 -960 R0
SYMATTR InstName D1
SYMBOL res 1072 -832 R0
SYMATTR InstName R14
SYMATTR Value 100
SYMBOL LED 1216 -960 R0
SYMATTR InstName D3
SYMBOL res 1216 -832 R0
SYMATTR InstName R17
SYMATTR Value 100
SYMBOL res 240 -976 R0
SYMATTR InstName R21
SYMATTR Value 680
SYMBOL res 240 -848 R0
SYMATTR InstName R23
SYMATTR Value 330
SYMBOL OpAmps\\UniversalOpAmp5 656 -800 R0
SYMATTR InstName U5
SYMBOL res 928 416 R90
WINDOW 0 0 56 VBottom 2
WINDOW 3 32 56 VTop 2
SYMATTR InstName R24
SYMATTR Value 1k
SYMBOL cap 960 432 R0
SYMATTR InstName C4
SYMATTR Value 100n
SYMBOL res 912 -160 R90
WINDOW 0 0 56 VBottom 2
WINDOW 3 32 56 VTop 2
SYMATTR InstName R25
SYMATTR Value 1k
SYMBOL cap 944 -144 R0
SYMATTR InstName C5
SYMATTR Value 100n
SYMBOL cap 704 176 R90
WINDOW 0 0 32 VBottom 2
WINDOW 3 32 32 VTop 2
SYMATTR InstName C1
SYMATTR Value 560p
SYMBOL cap 688 -400 R90
WINDOW 0 0 32 VBottom 2
WINDOW 3 32 32 VTop 2
SYMATTR InstName C3
SYMATTR Value 560p
SYMBOL cap 480 576 R180
WINDOW 0 24 56 Left 2
WINDOW 3 24 8 Left 2
SYMATTR InstName C6
SYMATTR Value 560p
SYMBOL cap 464 0 R180
WINDOW 0 24 56 Left 2
WINDOW 3 24 8 Left 2
SYMATTR InstName C7
SYMATTR Value 560p
TEXT -600 -1512 Left 2 !.tran 10ms
TEXT -736 -1632 Left 2 ;Different gains for whether high current range or low current range.
TEXT -496 768 Left 2 ;Voltage sensing
TEXT -600 -1448 Left 2 !.model Z D(BV=3.3 IBV=1m)
TEXT -488 -320 Left 2 ;Current Sensing
TEXT 312 -352 Left 2 ;+-20A Range
TEXT 312 272 Left 2 ;+-100A Range
TEXT 920 192 Left 2 ;800Hz corner f for filtering caps
TEXT 1120 -1080 Left 2 ;LEDs
TEXT -296 -1192 Left 2 ;Linear Regulator
TEXT 496 -1016 Left 2 ;Reference voltage buffer
TEXT -80 88 Left 2 ;Shunt resistor
TEXT 536 -480 Left 2 ;Difference amplifier
TEXT 528 928 Left 2 ;Buffer
TEXT 688 976 Left 2 ;Low-pass filter
TEXT 824 272 Left 2 ;Low-pass filter
TEXT 824 -320 Left 2 ;Low-pass filter
