Version 4
SHEET 1 1392 956
WIRE 752 -352 704 -352
WIRE 576 -272 480 -272
WIRE 704 -272 704 -352
WIRE 704 -272 656 -272
WIRE 704 -240 704 -272
WIRE 752 -240 704 -240
WIRE 832 -224 832 -352
WIRE 832 -224 816 -224
WIRE 864 -224 832 -224
WIRE 752 -208 672 -208
WIRE -352 -80 -576 -80
WIRE -576 -32 -576 -80
WIRE -352 -32 -352 -80
WIRE -416 96 -496 96
WIRE -352 96 -352 48
WIRE -352 96 -416 96
WIRE -304 96 -352 96
WIRE -208 96 -304 96
WIRE -112 96 -208 96
WIRE -16 96 -112 96
WIRE 112 96 -16 96
WIRE 112 112 112 96
WIRE 256 112 112 112
WIRE 368 112 256 112
WIRE 496 112 368 112
WIRE -496 128 -496 96
WIRE -416 128 -416 96
WIRE -304 128 -304 96
WIRE 1168 128 1120 128
WIRE -208 144 -208 96
WIRE -112 144 -112 96
WIRE -16 144 -16 96
WIRE 112 144 112 112
WIRE 256 144 256 112
WIRE 496 144 496 112
WIRE 368 160 368 112
WIRE 992 208 896 208
WIRE 1120 208 1120 128
WIRE 1120 208 1072 208
WIRE 1120 240 1120 208
WIRE 1168 240 1120 240
WIRE -496 256 -496 208
WIRE -416 256 -416 208
WIRE -416 256 -496 256
WIRE -352 256 -416 256
WIRE -304 256 -304 208
WIRE -304 256 -352 256
WIRE -208 256 -208 224
WIRE -208 256 -304 256
WIRE -112 256 -112 224
WIRE -112 256 -208 256
WIRE -16 256 -16 224
WIRE -16 256 -112 256
WIRE 112 256 112 224
WIRE 112 256 -16 256
WIRE 256 256 256 224
WIRE 256 256 112 256
WIRE 1248 256 1248 128
WIRE 1248 256 1232 256
WIRE 1280 256 1248 256
WIRE 256 272 256 256
WIRE 368 272 368 240
WIRE 368 272 256 272
WIRE 496 272 496 224
WIRE 496 272 368 272
WIRE 1168 272 1088 272
WIRE 1088 288 1088 272
WIRE 1088 288 928 288
WIRE -576 304 -576 48
WIRE -448 304 -576 304
WIRE -352 304 -352 256
WIRE -352 304 -448 304
WIRE -448 352 -448 304
WIRE 688 736 640 736
WIRE -16 752 -16 720
WIRE 112 752 -16 752
WIRE -16 784 -16 752
WIRE 112 800 112 752
WIRE 640 848 640 736
WIRE 688 848 640 848
WIRE 768 864 768 736
WIRE 768 864 752 864
WIRE 800 864 768 864
WIRE 688 880 608 880
WIRE 448 896 320 896
WIRE 608 896 608 880
WIRE 608 896 528 896
WIRE -16 928 -16 864
WIRE 16 928 -16 928
WIRE 112 928 112 864
WIRE 112 928 16 928
FLAG -448 352 0
FLAG -352 96 V
FLAG 896 208 0
FLAG 928 288 V
FLAG 1200 288 0
FLAG 1200 224 3.3v
FLAG 1280 256 vo_pos
FLAG 784 -192 0
FLAG 1136 -112 0
FLAG 1136 -192 3.3v
FLAG 784 -256 3.3v
FLAG 864 -224 vo_neg
FLAG -16 640 V1
FLAG 16 928 0
FLAG 112 752 Vv
FLAG 320 896 Vv
FLAG 720 896 0
FLAG 720 832 3.3v
FLAG 880 928 0
FLAG 880 864 Vvo
FLAG -352 -80 V1
FLAG 672 -208 0
FLAG 480 -272 V
SYMBOL voltage -1152 16 R0
WINDOW 123 0 0 Left 0
WINDOW 39 0 0 Left 0
SYMATTR InstName V1
SYMATTR Value 18
SYMBOL res -368 -48 R0
SYMATTR InstName R1
SYMATTR Value 0.6
SYMBOL res -432 112 R0
SYMATTR InstName R2
SYMATTR Value 0.01
SYMBOL res -320 112 R0
SYMATTR InstName R3
SYMATTR Value 0.01
SYMBOL res 1264 112 R90
WINDOW 0 0 56 VBottom 2
WINDOW 3 32 56 VTop 2
SYMATTR InstName R4
SYMATTR Value 300k
SYMBOL res 1088 192 R90
WINDOW 0 0 56 VBottom 2
WINDOW 3 32 56 VTop 2
SYMATTR InstName R5
SYMATTR Value 10k
SYMBOL OpAmps\\UniversalOpAmp5 1200 256 R0
SYMATTR InstName U1
SYMBOL res 848 -368 R90
WINDOW 0 0 56 VBottom 2
WINDOW 3 32 56 VTop 2
SYMATTR InstName R8
SYMATTR Value 300k
SYMBOL res 672 -288 R90
WINDOW 0 0 56 VBottom 2
WINDOW 3 32 56 VTop 2
SYMATTR InstName R9
SYMATTR Value 10k
SYMBOL OpAmps\\UniversalOpAmp5 784 -224 R0
SYMATTR InstName U2
SYMBOL voltage 1136 -208 R0
WINDOW 123 0 0 Left 0
WINDOW 39 0 0 Left 0
SYMATTR InstName V3
SYMATTR Value 3.3
SYMBOL res -32 624 R0
SYMATTR InstName R12
SYMATTR Value 19k
SYMBOL res -32 768 R0
SYMATTR InstName R13
SYMATTR Value 1k
SYMBOL res 784 720 R90
WINDOW 0 0 56 VBottom 2
WINDOW 3 32 56 VTop 2
SYMATTR InstName R14
SYMATTR Value 10k
SYMBOL res 544 880 R90
WINDOW 0 0 56 VBottom 2
WINDOW 3 32 56 VTop 2
SYMATTR InstName R15
SYMATTR Value 9050
SYMBOL OpAmps\\UniversalOpAmp5 720 864 R0
SYMATTR InstName U3
SYMBOL res 896 848 R90
WINDOW 0 0 56 VBottom 2
WINDOW 3 32 56 VTop 2
SYMATTR InstName R16
SYMATTR Value 1l
SYMBOL cap 864 864 R0
SYMATTR InstName C1
SYMATTR Value 100n
SYMBOL res -224 128 R0
SYMATTR InstName R17
SYMATTR Value 0.01
SYMBOL res -128 128 R0
SYMATTR InstName R18
SYMATTR Value 0.01
SYMBOL res -32 128 R0
SYMATTR InstName R19
SYMATTR Value 0.01
SYMBOL res 96 128 R0
SYMATTR InstName R20
SYMATTR Value 0.01
SYMBOL res 240 128 R0
SYMATTR InstName R21
SYMATTR Value 0.01
SYMBOL res -512 112 R0
SYMATTR InstName R22
SYMATTR Value 0.01
SYMBOL res 352 144 R0
SYMATTR InstName R23
SYMATTR Value 0.01
SYMBOL res 480 128 R0
SYMATTR InstName R24
SYMATTR Value 0.01
SYMBOL current -576 48 R180
WINDOW 0 24 80 Left 2
WINDOW 3 24 0 Left 2
WINDOW 123 0 0 Left 0
WINDOW 39 0 0 Left 0
SYMATTR InstName I1
SYMATTR Value 50
TEXT 96 264 Left 2 !.tran 10ms
TEXT -160 -264 Left 2 ;splits negative and positive current
