Version 4
SHEET 1 2388 1060
WIRE 688 -880 688 -960
WIRE 864 -880 864 -960
WIRE 1040 -880 1040 -960
WIRE -592 -752 -704 -752
WIRE -512 -752 -592 -752
WIRE -176 -752 -256 -752
WIRE -16 -752 -176 -752
WIRE -592 -592 -592 -752
WIRE -176 -592 -176 -752
WIRE -592 -432 -592 -528
WIRE -384 -432 -384 -656
WIRE -384 -432 -592 -432
WIRE -176 -432 -176 -528
WIRE -176 -432 -384 -432
WIRE -384 -400 -384 -432
WIRE 288 -128 240 -128
WIRE -352 -80 -576 -80
WIRE 112 -48 16 -48
WIRE 240 -48 240 -128
WIRE 240 -48 192 -48
WIRE -576 -32 -576 -80
WIRE -352 -32 -352 -80
WIRE 240 -16 240 -48
WIRE 288 -16 240 -16
WIRE 368 0 368 -128
WIRE 368 0 352 0
WIRE 400 0 368 0
WIRE 544 0 544 -32
WIRE 544 0 480 0
WIRE 288 16 208 16
WIRE -352 96 -352 48
WIRE -352 96 -400 96
WIRE -320 96 -352 96
WIRE -400 128 -400 96
WIRE -320 128 -320 96
WIRE 896 144 896 48
WIRE 928 144 896 144
WIRE 1056 160 992 160
WIRE 896 176 864 176
WIRE 928 176 896 176
WIRE 288 208 240 208
WIRE -400 256 -400 208
WIRE -352 256 -400 256
WIRE -320 256 -320 208
WIRE -320 256 -352 256
WIRE 112 288 16 288
WIRE 240 288 240 208
WIRE 240 288 192 288
WIRE 896 288 896 176
WIRE 928 288 896 288
WIRE 1056 288 1056 160
WIRE 1056 288 1008 288
WIRE -576 304 -576 48
WIRE -448 304 -576 304
WIRE -352 304 -352 256
WIRE -352 304 -448 304
WIRE 240 320 240 288
WIRE 288 320 240 320
WIRE 368 336 368 208
WIRE 368 336 352 336
WIRE 400 336 368 336
WIRE 544 336 544 304
WIRE 544 336 480 336
WIRE -448 352 -448 304
WIRE 288 352 208 352
WIRE 208 368 208 352
WIRE 208 368 48 368
WIRE -352 704 -576 704
WIRE 288 704 144 704
WIRE -576 784 -576 704
WIRE -352 816 -352 784
WIRE -224 816 -352 816
WIRE 144 816 144 704
WIRE 192 816 144 816
WIRE 288 832 288 704
WIRE 288 832 256 832
WIRE 304 832 288 832
WIRE 448 832 448 800
WIRE 448 832 384 832
WIRE -352 848 -352 816
WIRE 192 848 112 848
WIRE -224 864 -224 816
WIRE -576 992 -576 864
WIRE -352 992 -352 928
WIRE -352 992 -576 992
WIRE -224 992 -224 928
WIRE -224 992 -352 992
WIRE -352 1040 -352 992
FLAG -448 352 0
FLAG -320 96 V
FLAG 16 288 0
FLAG 48 368 V
FLAG 320 368 0
FLAG 320 304 5V
FLAG 544 304 vo_pos
FLAG 320 32 0
FLAG 320 -32 5V
FLAG 544 -32 vo_neg
FLAG -224 816 Vv
FLAG 112 848 Vv
FLAG 224 864 0
FLAG 224 800 5V
FLAG 448 896 0
FLAG 448 800 Vvo
FLAG 208 16 0
FLAG 16 -48 V
FLAG 544 400 0
FLAG 544 64 0
FLAG -16 -752 5V
FLAG -704 -752 Vdc
FLAG 192 -1008 0
FLAG 192 -1088 Vdc
FLAG -384 -400 0
FLAG -352 1040 0
FLAG 688 -800 0
FLAG 688 -1024 Vdc
FLAG 864 -800 0
FLAG 864 -1024 V1
FLAG 1040 -800 0
FLAG 1040 -1024 Debug
FLAG 960 192 0
FLAG 960 128 5V
FLAG 896 48 0
FLAG 784 176 current
FLAG -352 -80 current
SYMBOL voltage -576 768 R0
WINDOW 123 0 0 Left 0
WINDOW 39 0 0 Left 0
SYMATTR InstName V1
SYMATTR Value 18
SYMBOL res -368 -48 R0
SYMATTR InstName R1
SYMATTR Value 0.6
SYMBOL res -336 112 R0
SYMATTR InstName R2
SYMATTR Value 2m
SYMBOL res 384 192 R90
WINDOW 0 0 56 VBottom 2
WINDOW 3 32 56 VTop 2
SYMATTR InstName R4
SYMATTR Value 300k
SYMBOL res 208 272 R90
WINDOW 0 0 56 VBottom 2
WINDOW 3 32 56 VTop 2
SYMATTR InstName R5
SYMATTR Value 10k
SYMBOL OpAmps\\UniversalOpAmp5 320 336 R0
SYMATTR InstName U1
SYMBOL res 384 -144 R90
WINDOW 0 0 56 VBottom 2
WINDOW 3 32 56 VTop 2
SYMATTR InstName R8
SYMATTR Value 300k
SYMBOL res 208 -64 R90
WINDOW 0 0 56 VBottom 2
WINDOW 3 32 56 VTop 2
SYMATTR InstName R9
SYMATTR Value 10k
SYMBOL OpAmps\\UniversalOpAmp5 320 0 R0
SYMATTR InstName U2
SYMBOL res -368 688 R0
SYMATTR InstName R12
SYMATTR Value 19k
SYMBOL res -368 832 R0
SYMATTR InstName R13
SYMATTR Value 1k
SYMBOL OpAmps\\UniversalOpAmp5 224 832 R0
SYMATTR InstName U3
SYMBOL res 400 816 R90
WINDOW 0 0 56 VBottom 2
WINDOW 3 32 56 VTop 2
SYMATTR InstName R16
SYMATTR Value 1k
SYMBOL cap 432 832 R0
SYMATTR InstName C1
SYMATTR Value 100n
SYMBOL res -416 112 R0
SYMATTR InstName R22
SYMATTR Value 2m
SYMBOL zener -208 928 R180
WINDOW 0 24 64 Left 2
WINDOW 3 24 0 Left 2
SYMATTR InstName Z
SYMBOL current -576 48 R180
WINDOW 0 24 80 Left 2
WINDOW 3 24 0 Left 2
WINDOW 123 0 0 Left 0
WINDOW 39 0 0 Left 0
SYMATTR InstName I1
SYMATTR Value 20
SYMBOL res 496 320 R90
WINDOW 0 0 56 VBottom 2
WINDOW 3 32 56 VTop 2
SYMATTR InstName R3
SYMATTR Value 1k
SYMBOL cap 528 336 R0
SYMATTR InstName C2
SYMATTR Value 100n
SYMBOL res 496 -16 R90
WINDOW 0 0 56 VBottom 2
WINDOW 3 32 56 VTop 2
SYMATTR InstName R6
SYMATTR Value 1k
SYMBOL cap 528 0 R0
SYMATTR InstName C3
SYMATTR Value 100n
SYMBOL PowerProducts/LT1085-5 -384 -752 R0
SYMATTR InstName Reg1
SYMBOL cap -608 -592 R0
SYMATTR InstName Cin1
SYMATTR Value 47µ
SYMATTR SpiceLine Rser=0.001
SYMBOL cap -192 -592 R0
SYMATTR InstName Cout1
SYMATTR Value 10µ
SYMATTR SpiceLine Rser=0.001
SYMBOL voltage 192 -1104 R0
WINDOW 123 0 0 Left 0
WINDOW 39 0 0 Left 0
SYMATTR InstName V2
SYMATTR Value 12
SYMBOL LED 672 -1024 R0
SYMATTR InstName D1
SYMBOL res 672 -896 R0
SYMATTR InstName R7
SYMATTR Value 100
SYMBOL LED 848 -1024 R0
SYMATTR InstName D2
SYMBOL res 848 -896 R0
SYMATTR InstName R10
SYMATTR Value 100
SYMBOL LED 1024 -1024 R0
SYMATTR InstName D3
SYMBOL res 1024 -896 R0
SYMATTR InstName R11
SYMATTR Value 100
SYMBOL OpAmps\\UniversalOpAmp5 960 160 R0
SYMATTR InstName U4
SYMBOL res 880 160 R90
WINDOW 0 0 56 VBottom 2
WINDOW 3 32 56 VTop 2
SYMATTR InstName R14
SYMATTR Value 10k
SYMBOL res 1024 272 R90
WINDOW 0 0 56 VBottom 2
WINDOW 3 32 56 VTop 2
SYMATTR InstName R15
SYMATTR Value 100k
TEXT -440 -1096 Left 2 !.tran 10ms
TEXT 120 -224 Left 2 ;splits negative and positive current
TEXT -440 -1056 Left 2 !.model Z D(BV=3.3 IBV=1m)
TEXT -576 624 Left 2 ;Voltage sensing
TEXT -592 -160 Left 2 ;Current sensing
